[12:12:33] [ERROR] ❌ Post-process video failed
[12:12:33] [ERROR] Error details: Test-Path : Impossible de lier l'argument au paramètre « Path », car il a la valeur Null.
Au caractère C:\Users\gabai\Documents\GitHub\Plublista\reels-automation\scripts\compose_ffmpeg.ps1:120 : 21
+ if (-not (Test-Path $step2)) {
+                     ~~~~~~
    + CategoryInfo          : InvalidData: (:) [Test-Path], ParameterBindingValidationException
    + FullyQualifiedErrorId : ParameterArgumentValidationErrorNullNotAllowed,Microsoft.PowerShell.Commands.TestPathCommand

[12:12:33] [INFO] Output: Starting video composition...
FFmpeg found
Input file: C:\Users\gabai\Videos\2025-10-27 12-12-11.mp4
Output file: C:\Users\gabai\Documents\GitHub\Plublista\reels-automation\out\final\job-3.mp4
📌 Step 1: Adding brand overlay...
-ForegroundColor Yellow
= C:\Users\gabai\Documents\GitHub\Plublista\reels-automation\out\final\step1_brand.mp4
# DEBUG
Write-Host   [DEBUG] Input: C:\Users\gabai\Videos\2025-10-27 12-12-11.mp4 -ForegroundColor Magenta
Write-Host   [DEBUG] Logo: assets\brand\logo.png -ForegroundColor Magenta
Write-Host   [DEBUG] Output: -ForegroundColor Magenta

[DEBUG] Input: 
[DEBUG] Music: assets\music\tech-energy.mp3
[DEBUG] Output: 

[DEBUG] Input file for step 3: 
[DEBUG] Output file: C:\Users\gabai\Documents\GitHub\Plublista\reels-automation\out\final\job-3.mp4
[DEBUG] FFmpeg command:
ffmpeg -i -af loudnorm=I=-16:TP=-1.5:LRA=11 -c:v copy -c:a aac -b:a 192k C:\Users\gabai\Documents\GitHub\Plublista\reels-automation\out\final\job-3.mp4 -y

ERROR: Audio normalization failed
FFmpeg exit code: -2
[in#0 @ 000002b7ff8b5bc0] Error opening input: No such file or directory
Error opening input file -af.
Error opening input files: No such file or directory
